
Note: Compatibility modes selected: ps lt ki a


Circuit: * *-------------------------------parameters--------------------------------------

ASCII raw file "c:/Users/eugene.dann/Desktop/projects/SPYCI/output/test_1.raw"
Doing analysis at TEMP = 27.000000 and TNOM = 27.000000

Using SPARSE 1.3 as Direct Linear Solver
No. of Data Columns : 7  

No. of Data Rows : 4001
No. of Data Columns : 7  

Initial Transient Solution
--------------------------

Node                                   Voltage
----                                   -------
in                                           0
n999                                         0
tp1                                          0
l.xt1.l2#branch                              0
l.xt1.l1#branch                              0
v1#branch                                    0


No. of Data Rows : 20014

Total analysis time (seconds) = 0.130402

Total elapsed time (seconds) = 0.190 

Total DRAM available = 32488.492 MB.
DRAM currently available = 10807.504 MB.
Maximum ngspice program size =   19.262 MB.
Current ngspice program size =   19.262 MB.

