
Note: Compatibility modes selected: ps lt ki a


Circuit: * *-------------------------------parameters--------------------------------------

binary raw file "/Users/eugenedann/Documents/Development/spyci/output/test_1.raw"
Doing analysis at TEMP = 27.000000 and TNOM = 27.000000

Using SPARSE 1.3 as Direct Linear Solver
No. of Data Columns : 7  

No. of Data Rows : 631

Total analysis time (seconds) = 0.001671

Total elapsed time (seconds) = 0.009 

Total DRAM available = 16384.000 MB.
DRAM currently available =  602.562 MB.
Maximum ngspice program size =    7.734 MB.
Current ngspice program size =    7.734 MB.

